2marts
hasj
tradicionali
xxhub3rtxx
pattylane4
Shijun
2014619
strandtaal
Verzoeningsbesluit
nuhaedward
363723295643016
mq03gf
Niall
91GRQoBj95DP2
Lassen Sie mich an der Ecke aussteigen
Pecqueur
theo1944
ccxxxi
PAGES
SaiyanaGary1*
ktntashbma120
Spaanderlaan
c3VwZXJtYW5uZXRqZQ
leigha16
ultra70hot
0281894230
rabat1234567890
kiks9876
_dawn04
yank33s
motorolae8
chiripa22
acculée
Degbelo
te5trunn
vidanueva2008
gooseZILLA06
satyanto
calottais
solteraynadamasok
2572668
0833363141
boxxxing
SASvliegtuig
ebbe23611757
will.r
secvicen
caos64
adryanalaprincesa
moquetteras
45806570
g9ffebw4
etalucaj
tijd1976
maatschappijop
Borsele1
Tangshantreinen
mhkievit
Liquidita"tsgru"nden
81310
soiialita
kaew09
nenacvicit
sasiaduje
654321HHHH8
Flash_17104
valay
2002man
165236
89008hk
palanqueriez
Conn88H
dharwar1
whinny01
lancebasis
Meppelondergaat
lacurioza1
cb81lhs
HfvXSmq
09185228822
ashlea52
srs5050
pauletteson
doire27
rozvtven
sillybum
peter-pan
9y22bskb
860200
996332114785tras
64023489
642642goga
28287992692669
mlgamer
millaray1985
kinito08
nduidig
1Kraig
autioitumisesta
hardwinter
gacytyfo
heyman17
Tuintenten
successieoorlog
1234030436
jacob32408
di3d
macster171
etron77
df0934j
statmon
stewart01
chasehoney
5744997
Reigert
Am49roor
jmd2882
24575
jaymeisnotmyhusband
witch005
europe'aniser
onepwns78971
denzel56
-///--
iammmjf
bitolcance
9449sdpeixe
4148ekutejom
aoifes
nimco123
cezosunu
xenosaurid
MXjpvQG
s&132s3
rwsr50
485m8A37
cmmlover42
thumper196788
vdlewh
rain5830
Wilbra
gialenalena
lbgf3z
tatingly
rms55586
jozel\\'001
kanrampzalige
-cide
spells7
demetallieke
CCMICITI
sherin10
rauliciu
hahniana
remy81
tuesd@y*
!AeroDynamics
831113831113
Cdtnjxrf
j9uzq6q8
sadies8
Tankinhoud
4875bd42
isaybel
Banaantje
s55ayub2
ropasa
bm4ydxmx
0801706177
dandula
rosafer
mitgesfines
guitarhero97
0811610780
flash7263
diethylmalonylurea
passlord13
crisf98
deanna75
vrouwenonderelkaarpraatjes
Gunaydin01!
111347347
heising323
rahoitusmarkkinoittemme
shiotita
Falco
bas121980
Todd402
opvangverzoeken
22smith3128
t8jlB6tf2B
oblite'rait
0899569304
Beauvoirrenaissance
eiersteen
Koalavrouwtje
tazgirl915
dramlal
zenit2012
sg52mxe
hma413
1TNAUQIP
titolazioni
russungirl
iamblour
smogtraject
180389vad
iniquity's
gushes
cmarani
bankhaat
samodzielne
baylor
Periera
brmh4ix9
pitarr
partecipasti
nickjm
robertadriansnell
l0lw0ht
0840079690
kahpemai
staticblazerage
zyqewema
uidisse
yllegastetu28108
vinnisse18
berryfire914
meedwarrelen
nirusunar
pony7lady
01kyra_nikkie
Sporzauitzendingen
232115
may271976
65677064
micarla321
2694336
O9lR7eC688
soldes123
rockettes
29/6/76
1705pk
vuzepaqu
Kerkmuizen
Rahasiato
355214
0192manu
taylar07
alexvisentin
Fancypants
websitebrief
RRvh1004
schumacherf1
estm0cfv
rozpaskudzenie
dootzy
j020589
050389n
2mauredbull25
rakonsnear
1tnap
burdoy669
Borneokade
j98531
kwijtte
bastafongooli
TASHEY
sunway0806
0842263645
iam466chao
kertyy
pariseli
cmc973072
donablero
MiningDe
SurU
er2thene
bank12345
1 KLOS
zaniklm
MgGhRiA6
brar101
lorisa02
WAW
RichardHamilton32
Hanoverianizes
film007
barton9
perasle
parochieblaadjes
trahamurque
b277imsg
uitlatingweggelopen
13145201314
offenses
verjaardagsfelicitaties
speedstreams
Tietneuk
ve32en05
42oy42oy
psychoanalyseerde
twiddliest
wegMeppelPesse
ilcssvm043005
dplat
stamp-15095
linden2007
detourneraient
campinghekken
casal2020
ah89g5
Verehj007
7374y8
T Mos
yxy5124512
k1mcunt
hF7yH0V
laurentius's
verknuepften
prankfulness
KunstSuper
wabbit18
mollykj1
peter9284
6nWt9s4r
kween9e
JapEurpUSA
9504287980
09186540382
pupulu1194
0310013
andz434
roxxe
pretfoto
Grehnik02
RODMULLEN720@AOL.COM
Love4Jordan
micahdavid
nfrfcfrf487
dedbb
zoom81
miniboekenmarkt
testtrans.1
bisahyka
1erohw
Soeplepel93
mamoun17
1982427
19990114a
waysick
PASScode412
zw19910211
pantserkamer
wortelvezel
terugkeerbegeleiders
gr891022
ILOVEU947
7p8z9liw
utajeny
69366936
drea-balrog
sin64u
41341612310
Beamwatch
langecommentaren
IDA777
MTVclips
Shellolieraffinaderij
caviafles1
ontstekinkjes
KROGT
by-speech
827f00b0
717171mc
123006707
liberticidal
Hellhaus
stiltevespersstilte
denrichard
wordtingevoerd
amerikaantjes
snoop789
corfecrew
ofroommn
098482250
nuncago
yinguang1
Jefkyi6TljmEV4b7
nietCDAminister
gemies
13b3ck666tiet13
pointen
lachelle000
mivrerie
ballah16
JELLO123
shantymen
nozafoqi
amisk8er
RBOZEHKY
mycraft234
YESI88
gog3tta
injusticia
ryry0427
pooyam
communityprogramma
fsagera224286
66688463
odahmen
jcretencio
Tjechischehanden
329323
marie19455491eiram
PIPERLENA
Jai4dee4
onanerer
mcaela
kenny1516
Stadskwekerij
universiteitsleven
achterafkamertjespolitiek
16937
lunalinda
boerboel27
bsimms
5cb4qlu
helokitty11
teamoklgs
Faar.aqq
therani
1tsisnoC
HIRCS911
clairet29
zhangzj47
?sexy?
9467072755
00607
LtdTocqueville
man10856
hairiinshuteen
kristan21
wiqoloxo
tshisekedia
1duPEQ0V6
invstrx1
sexyhottness
minofejo
121639k
lynne20
qunymalo
rnababy
activeringsprojecten
sabrina78
infectedjerm
steeple hunt
Acrocomia
dgc4x5qwe
aphrilko
dropone
pokerattributen
carlos408
abnet01
tobe85
shaun9063
phsswimteam
Zijmuren
jamesfrancis
6132109
wakendetoestand
lexmark101
Beagle24
1068272
Danya41
metaldemon
Duckstadmythologie
kanakas
19xd95
applepony4
*84evans*
gborkowski
mojavemo
faseillâtes
puolassakin
maska1955
glykas
Paliá
98765432v
internet23
sexci22
01100316
7851952
DSrecensente
!$!@*^
4RT4CL6
qeag636
fealcomam
o1zjtm8
Australiëtournee
hxu2hxu2
hgX8ksEy
031993en
Shanelecs
plazit
1aniuqoc
accumulated
k6280623
iluvdcoke
merpril
3686498
janneth1688
957349
freshita:)
bnxkpw5jx6
kebepa
SJINtoezegging
gytanova
ARBOLEDA30
elementarnej
Deglane
Masagascarese
VJUEPRUU
mekatukan
bewijfelt
1Werwolf
meualbumdefotos
sweepsteakets
berzeg77
TRvg$8738
CHOCLATE08
300arsede
lizeth16_8
vielzaterdagmiddag
19va52
JESSI037
09103762948
0832328607
corsetmaker
088566
pdfvgz7q4w
maperr6275
lt177701
eliza666666
tbasdeo
glaizel
catechizing
dievenromans
kyoukoku
fer_mimo_luis@hotmail.com
Oefenclub
saeculisque
sljocht
veotbf2R
xxxssps
lo97yg
9898887711
IJjBK
doorzwin2616
huiskamerharmonium
vmboC
bobmarley81
zer0chance
Hooey8
ciara1991
juqixadi
174544tanecvotme174544
Menschenhanden
Ez2w9xcvSIAYkiYm
Grabbelend
Lacrosse55
45301207
aflseligt
i36983
iheartdrew07
grace711
jia_tim
smit1088
dananderica
kmdela
UniqueFotoexpositie
SECRETSTUFF
(loveu)
ARROW 104.5
ad3320
diktaputri
CAVINS
jrsrjs2008
jely1
renan11030
s0mmer
RIV0013
juares
64884622
epontmercy
3347179
akpsp2009
koersplunje
lurdes1992
jeffche
MAYITA
r3b3<<@c@rt3r
willem71
09204071726
1ELDDAW
payatic
kriszta-01
catorcedemayo
223535
cumazifa
miriana1989
carriefan618
Lovers!*!
girlfriends
4580957
morfeb13
kockheed
254aytt
fanjunhong
nicole4888
6163ca
dogfaart12
TEE69
exportfabriek
wapentoevloed
BettiniWaalse
dolicen
persvernis
planWöltgens
husliges
chatologo
greenga1980
031122
hopiegirl
352286a
cambriann1
Poissonification
adoptieperiode
Politiebi
09298633370
schar12
andereverhalen
kirbylim
hgf.,gm
privébeleggingsrekeningen
malivai
4eandenor
exitworkproc
hugepega
smyslovemu
our4acres
final10
girlmuts
incondensability
62239853
antitoekomstdenken
bobnkyra1
dud33n
544208
yamalie21
shoud
acildo
crummed
bhlarh3400
vulkaangeleerden
ctran-ng
kristian613
23072009072zh
rocleerlingen
diekholzen
0832721312
Lorentzville
debilkonina
hikojoqy
onnettomuustapauksissa
tirrie
fortean
5582636
50596329
niny99
romels0919
schreckenden
Happyles
bartolom8
Kometenbuurt
12junk12
rhecar
Streuvelsboek
blaze7746
jarnokooijmancom
jesikleon260802
Schnann
trentyboy
tw1597535980
papierbereiding
vaxubonu
lulu22rachel
skryje
cyjisipe
fimasuly
ganther
mytruluv1
jelly99975321
in0n3u120m4
1erutxet
méritassiez
10helena
4882389a
tuchona
520131458
627628555091361
Méi
000418098
neurotonica
we031sewn289
jas685661
27020527
3325502035
291346
D2T
iamabitch
wanted13
safu241645
dorothyhansen123
Krysta1
pinier
lovecantlie
95.222.58.228
Zonka
avtale
REMF
nc03xsm2
464544
summerjohn
dalia75
LILLY23
rebaptize
schakeleffect
Stopproject
Ecovia
ravennassa
tang.yh
csms33
12816608
giga1988
Fashion_93
udbabe44
handelsshow
kittysthe1
scorpion_07
SzgPhF9
cam648mint770
il0vev
pjjuly46
IDALES
Quik
jarrul
8711118711
tussenstopgebied
q734pj
gonohe
835706
travelbe
podridero
rocktell
ragweedro1
yadxiel
DULcik
hersencolleges
1605FGJ
0102725170
SJUK-LAN
Manuura
traxxas92
farcry80
trioladiedieoladiehie
nezza07
kiki454
wamba_wero_1611
gigitt3
vickie18
antiTrumpsite
fitdancergirl
grebner
JC190689
bonouuonob
joyyce
180698td
jarenvijftighuis
06201954
aledo3
dniners
teach29ns
gandagem
Neudeutsche
cigar328
92737111
belinbeato
562zzcug
ThoChaMar
loveforall010203
alleopenheid
parallelotope
241sskb
91carver
isleofcarpi
superbegaafd
rebeclueless
Hasselbraam
ryanar
mosquitto
rm8605
denison
POLANKA1
5a6d1q
paciokko
hmj020764
substandardized
kuivana
Bartosik
thommo08
demarce98
voueront
ral1047
em7egx5o
iamin1
newjob1
calabaza198
Duiveltje1
ontvangerskantoor
MIup008
seajay6
finebitch3
casey,simon
floki
4099794
alexco213
chavcrew
7735127
ds8389
geyaps12
A027171817
cite particulars
Tunnuss4
a7cakk
renfonças
Eurogroupvoorzitter
74KOffie
onduidelijik
internetweddenschappen
georgemordokvas
chn2010fktyf
5434482
jean1p2014
SuzeAnn
chiante1
a848586
jhenjhn
waand
shumz4156
pra"gende
BADICE12
123nastia123
YVETTTE01
cegeqeso
mckayer
adik8ako
seshomaro
kikitjuhh12
la gatita floridalia9@hotmail.com
steadyeddy
pecinta wanita
del_GMC
ontvoeringvideo
lalala9
techowizards
unpunctualness
192006
desept28
rslikeddt
lauramello
M@Y1*
1f662c0
ox bot
Farages
mladshii
aubryen95
spraarders
daelen0102
de2317
l1e0a3h
gaoyua1
lifiscool
genuspython
misconvenient
liefang
Halattaction
kse55scr
manga69
NAGLE1
673mwcdy
mely9653
siraf
jn1206
beflittet
niunv
jadenanderson
nyas3aci
20673586
qwertuio[
petraronw
natasa59
Transcend4971
932851
verdiensten
safiahedrus105
chineyeyez
Apollo100%
girl4girls
25267park
12705431
ruhlman87
Dermatology&Laser
tegenfeitelijke
3558katy
3146389702
egley
1hguhcm
EeuweVaartjes
1lolzaw
199719m
ruigeweg43
zijnaanleiding
anitaalaerds
Hanumaneigenaar
venushorton
curtis42
brendachabot
0849181720
210172an
grondwetschrijver
skalperendes
gaqyfiny
5987d8a3
denvalbarrett
abbiec
forevercool9
wykuhago
Gianni08
rosijare89)
2002.09.06
0100989957
etnomaniya
wdqrsshl
gfhfif111
Germar
handhavingsproblemen
shdjvg5
2209=ROGER
tootsie315
torombolos
road agent
simpson3783
4ccub47i0n
bpinsuwan
Yankeehelden
siglasse
casey2aj
deeltijdidylle
liall
poszata
wuluqoxy
lust5046
ak0732
flip10
7562353
sw00ncor
cdebruijn
JORDAN1962
oumlovetae
09207374350
622f6bb3
staceyme92
151189k
kellyccc
ameryk
Conrath
S9318301J
zcomm
csbg8i32
4569445
buragasy
manzaliñaboom
blkbeard
4171526
miffy06
NVvRlid
mtair01
Maximonster1
kcx.4names21man
